MODEL 1
REMARK VINA RESULT: -46687.173      0.000      0.000
REMARK INTER + INTRA:     4658906.646
REMARK INTER:                 -12.948
REMARK INTRA:             4658919.595
REMARK UNBOUND:           4719240.480
REMARK  Name = Z653910660
REMARK  6 active torsions:
REMARK  status: ('A' for Active; 'I' for Inactive)
REMARK    1  A    between atoms: C_1  and  O_5
REMARK    2  A    between atoms: O_5  and  C_6
REMARK    3  A    between atoms: N_8  and  C_10
REMARK    4  A    between atoms: C_15  and  C_16
REMARK    5  A    between atoms: C_16  and  N_19
REMARK    6  A    between atoms: C_21  and  C_23
REMARK                            x       y       z     vdW  Elec       q    Type
REMARK                         _______ _______ _______ _____ _____    ______ ____
ROOT
ATOM      1  N   UNL     1      25.665 -11.690  10.079  0.00  0.00    -0.307 N 
ATOM      2  C   UNL     1      26.222 -12.552   9.143  0.00  0.00    +0.251 C 
ATOM      3  O   UNL     1      27.365 -12.992   9.207  0.00  0.00    -0.270 OA
ATOM      4  H   UNL     1      24.739 -11.306   9.952  0.00  0.00    +0.149 HD
ENDROOT
BRANCH   2   5
ATOM      5  C   UNL     1      25.327 -12.953   8.033  0.00  0.00    +0.122 A 
ATOM      6  C   UNL     1      25.067 -12.010   6.927  0.00  0.00    +0.350 A 
ATOM      7  O   UNL     1      25.338 -10.819   7.032  0.00  0.00    -0.244 OA
ATOM      8  O   UNL     1      24.440 -12.524   5.796  0.00  0.00    -0.422 OA
ATOM      9  C   UNL     1      23.971 -13.852   5.760  0.00  0.00    +0.139 A 
ATOM     10  C   UNL     1      23.323 -14.270   4.599  0.00  0.00    +0.047 A 
ATOM     11  C   UNL     1      22.840 -15.574   4.531  0.00  0.00    +0.004 A 
ATOM     12  C   UNL     1      23.004 -16.446   5.610  0.00  0.00    +0.001 A 
ATOM     13  C   UNL     1      23.658 -16.010   6.770  0.00  0.00    +0.011 A 
ATOM     14  C   UNL     1      24.147 -14.703   6.851  0.00  0.00    +0.018 A 
ATOM     15  C   UNL     1      24.876 -14.217   8.015  0.00  0.00    +0.031 A 
ENDBRANCH   2   5
BRANCH   1  16
ATOM     16  C   UNL     1      26.457 -11.179  11.208  0.00  0.00    +0.139 C 
BRANCH  16  20
ATOM     17  C   UNL     1      28.029  -7.024  10.958  0.00  0.00    +0.036 A 
ATOM     18  C   UNL     1      27.940  -7.725  12.169  0.00  0.00    +0.024 A 
ATOM     19  C   UNL     1      27.483  -9.070  12.225  0.00  0.00    +0.007 A 
ATOM     20  C   UNL     1      27.093  -9.784  11.074  0.00  0.00    -0.030 A 
ATOM     21  C   UNL     1      27.185  -9.078   9.865  0.00  0.00    +0.007 A 
ATOM     22  C   UNL     1      27.655  -7.732   9.808  0.00  0.00    +0.024 A 
BRANCH  17  24
ATOM     23  C   UNL     1      27.730  -4.523  11.248  0.00  0.00    +0.404 C 
ATOM     24  N   UNL     1      28.468  -5.659  10.991  0.00  0.00    -0.251 N 
ATOM     25  H   UNL     1      29.447  -5.477  10.814  0.00  0.00    +0.158 HD
ATOM     26  O   UNL     1      26.527  -4.500  11.475  0.00  0.00    -0.226 OA
BRANCH  23  28
ATOM     27  C   UNL     1      28.697  -2.836   9.906  0.00  0.00    +0.282 C 
ATOM     28  O   UNL     1      28.541  -3.422  11.206  0.00  0.00    -0.453 OA
ENDBRANCH  23  28
ENDBRANCH  17  24
ENDBRANCH  16  20
ENDBRANCH   1  16
TORSDOF 5
BEGIN_RES LEU A 551
REMARK  2 active torsions:
REMARK  status: ('A' for Active; 'I' for Inactive)
REMARK    1  A    between atoms: CA   and  CB  
REMARK    2  A    between atoms: CB   and  CG  
ROOT
ATOM      1  CA  LEU A 551      28.335 -13.763   0.203  1.00 29.11     0.177 C 
ENDROOT
BRANCH   1   2
ATOM      2  CB  LEU A 551      27.422 -14.564   1.144  1.00 26.70     0.038 C 
BRANCH   2   3
ATOM      3  CG  LEU A 551      27.245 -13.913   2.531  1.00 27.88    -0.020 C 
ATOM      4  CD2 LEU A 551      27.135 -14.949   3.655  1.00 32.94     0.009 C 
ATOM      5  CD1 LEU A 551      25.981 -13.061   2.521  1.00 31.69     0.009 C 
ENDBRANCH   2   3
ENDBRANCH   1   2
END_RES LEU A 551
BEGIN_RES ILE A 559
REMARK  2 active torsions:
REMARK  status: ('A' for Active; 'I' for Inactive)
REMARK    3  A    between atoms: CA   and  CB  
REMARK    4  A    between atoms: CB   and  CG1 
ROOT
ATOM      6  CA  ILE A 559      30.859 -14.814   4.950  1.00 27.79     0.180 C 
ENDROOT
BRANCH   6   7
ATOM      7  CB  ILE A 559      29.459 -14.290   5.342  1.00 24.58     0.013 C 
ATOM      8  CG2 ILE A 559      29.179 -14.604   6.820  1.00 27.59     0.012 C 
BRANCH   7   9
ATOM      9  CG1 ILE A 559      29.258 -12.787   5.059  1.00 29.45     0.002 C 
ATOM     10  CD1 ILE A 559      28.573 -12.030   6.200  1.00 29.62     0.005 C 
ENDBRANCH   7   9
ENDBRANCH   6   7
END_RES ILE A 559
BEGIN_RES LYS A 581
REMARK  5 active torsions:
REMARK  status: ('A' for Active; 'I' for Inactive)
REMARK    5  A    between atoms: CA   and  CB  
REMARK    6  A    between atoms: CB   and  CG  
REMARK    7  A    between atoms: CG   and  CD  
REMARK    8  A    between atoms: CD   and  CE  
REMARK    9  A    between atoms: CE   and  NZ  
ROOT
ATOM     11  CA  LYS A 581      31.463 -16.896   8.967  1.00 28.57     0.176 C 
ENDROOT
BRANCH  11  12
ATOM     12  CB  LYS A 581      30.360 -16.385   9.895  1.00 28.76     0.035 C 
BRANCH  12  13
ATOM     13  CG  LYS A 581      30.229 -14.861  10.011  1.00 36.01     0.004 C 
BRANCH  13  14
ATOM     14  CD  LYS A 581      29.755 -14.576  11.441  1.00 41.65     0.027 C 
BRANCH  14  15
ATOM     15  CE  LYS A 581      29.917 -13.130  11.894  1.00 63.23     0.229 C 
BRANCH  15  16
ATOM     16  NZ  LYS A 581      29.785 -12.235  10.718  1.00 64.55    -0.079 N 
ATOM     17  HZ3 LYS A 581      29.038 -12.549  10.090  1.00 64.55     0.274 HD
ATOM     18  HZ2 LYS A 581      30.649 -12.239  10.176  1.00 64.55     0.274 HD
ATOM     19  HZ1 LYS A 581      29.552 -11.290  10.974  1.00 64.55     0.274 HD
ENDBRANCH  15  16
ENDBRANCH  14  15
ENDBRANCH  13  14
ENDBRANCH  12  13
ENDBRANCH  11  12
END_RES LYS A 581
BEGIN_RES GLU A 627
REMARK  3 active torsions:
REMARK  status: ('A' for Active; 'I' for Inactive)
REMARK   10  A    between atoms: CA   and  CB  
REMARK   11  A    between atoms: CB   and  CG  
REMARK   12  A    between atoms: CG   and  CD  
ROOT
ATOM     20  CA  GLU A 627      21.943 -22.006   8.769  1.00 28.95     0.177 C 
ENDROOT
BRANCH  20  21
ATOM     21  CB  GLU A 627      20.475 -22.000   9.268  1.00 33.37     0.045 C 
BRANCH  21  22
ATOM     22  CG  GLU A 627      19.992 -20.693   9.925  1.00 35.22     0.116 C 
BRANCH  22  23
ATOM     23  CD  GLU A 627      20.506 -19.417   9.226  1.00 35.02     0.172 C 
ATOM     24  OE1 GLU A 627      21.724 -19.159   9.114  1.00 33.81    -0.648 OA
ATOM     25  OE2 GLU A 627      19.678 -18.582   8.806  1.00 30.76    -0.648 OA
ENDBRANCH  22  23
ENDBRANCH  21  22
ENDBRANCH  20  21
END_RES GLU A 627
BEGIN_RES VAL A 629
REMARK  1 active torsions:
REMARK  status: ('A' for Active; 'I' for Inactive)
REMARK   13  A    between atoms: CA   and  CB  
ROOT
ATOM     26  CA  VAL A 629      19.333 -18.045   4.771  1.00 30.48     0.180 C 
ENDROOT
BRANCH  26  27
ATOM     27  CB  VAL A 629      19.136 -16.920   5.797  1.00 33.21     0.009 C 
ATOM     28  CG1 VAL A 629      19.337 -15.570   5.103  1.00 34.59     0.012 C 
ATOM     29  CG2 VAL A 629      17.724 -16.973   6.396  1.00 32.79     0.012 C 
ENDBRANCH  26  27
END_RES VAL A 629
ENDMDL
MODEL 2
REMARK VINA RESULT: -46686.827      1.843      2.893
REMARK INTER + INTRA:     4658907.094
REMARK INTER:                 -12.427
REMARK INTRA:             4658919.521
REMARK UNBOUND:           4719240.480
REMARK  Name = Z653910660
REMARK  6 active torsions:
REMARK  status: ('A' for Active; 'I' for Inactive)
REMARK    1  A    between atoms: C_1  and  O_5
REMARK    2  A    between atoms: O_5  and  C_6
REMARK    3  A    between atoms: N_8  and  C_10
REMARK    4  A    between atoms: C_15  and  C_16
REMARK    5  A    between atoms: C_16  and  N_19
REMARK    6  A    between atoms: C_21  and  C_23
REMARK                            x       y       z     vdW  Elec       q    Type
REMARK                         _______ _______ _______ _____ _____    ______ ____
ROOT
ATOM      1  N   UNL     1      27.134  -8.340   9.857  0.00  0.00    -0.307 N 
ATOM      2  C   UNL     1      27.575  -9.655   9.770  0.00  0.00    +0.251 C 
ATOM      3  O   UNL     1      28.556 -10.092  10.362  0.00  0.00    -0.270 OA
ATOM      4  H   UNL     1      26.355  -8.011   9.303  0.00  0.00    +0.149 HD
ENDROOT
BRANCH   2   5
ATOM      5  C   UNL     1      26.758 -10.547   8.916  0.00  0.00    +0.122 A 
ATOM      6  C   UNL     1      26.548 -10.207   7.494  0.00  0.00    +0.350 A 
ATOM      7  O   UNL     1      26.789  -9.082   7.068  0.00  0.00    -0.244 OA
ATOM      8  O   UNL     1      26.001 -11.197   6.684  0.00  0.00    -0.422 OA
ATOM      9  C   UNL     1      25.560 -12.422   7.224  0.00  0.00    +0.139 A 
ATOM     10  C   UNL     1      24.994 -13.341   6.343  0.00  0.00    +0.047 A 
ATOM     11  C   UNL     1      24.540 -14.559   6.842  0.00  0.00    +0.004 A 
ATOM     12  C   UNL     1      24.655 -14.852   8.203  0.00  0.00    +0.001 A 
ATOM     13  C   UNL     1      25.227 -13.918   9.075  0.00  0.00    +0.011 A 
ATOM     14  C   UNL     1      25.685 -12.690   8.587  0.00  0.00    +0.018 A 
ATOM     15  C   UNL     1      26.332 -11.705   9.443  0.00  0.00    +0.031 A 
ENDBRANCH   2   5
BRANCH   1  16
ATOM     16  C   UNL     1      27.877  -7.338  10.636  0.00  0.00    +0.139 C 
BRANCH  16  20
ATOM     17  C   UNL     1      27.209  -2.968  10.132  0.00  0.00    +0.036 A 
ATOM     18  C   UNL     1      28.396  -3.600   9.739  0.00  0.00    +0.024 A 
ATOM     19  C   UNL     1      28.574  -5.005   9.861  0.00  0.00    +0.007 A 
ATOM     20  C   UNL     1      27.574  -5.851  10.379  0.00  0.00    -0.030 A 
ATOM     21  C   UNL     1      26.387  -5.214  10.770  0.00  0.00    +0.007 A 
ATOM     22  C   UNL     1      26.204  -3.805  10.638  0.00  0.00    +0.024 A 
BRANCH  17  24
ATOM     23  C   UNL     1      26.425  -0.651  10.798  0.00  0.00    +0.404 C 
ATOM     24  N   UNL     1      27.121  -1.542  10.009  0.00  0.00    -0.251 N 
ATOM     25  H   UNL     1      27.636  -1.104   9.257  0.00  0.00    +0.158 HD
ATOM     26  O   UNL     1      25.724  -0.954  11.754  0.00  0.00    -0.226 OA
BRANCH  23  28
ATOM     27  C   UNL     1      27.863   0.826   9.644  0.00  0.00    +0.282 C 
ATOM     28  O   UNL     1      26.631   0.626  10.349  0.00  0.00    -0.453 OA
ENDBRANCH  23  28
ENDBRANCH  17  24
ENDBRANCH  16  20
ENDBRANCH   1  16
TORSDOF 5
BEGIN_RES LEU A 551
REMARK  2 active torsions:
REMARK  status: ('A' for Active; 'I' for Inactive)
REMARK    1  A    between atoms: CA   and  CB  
REMARK    2  A    between atoms: CB   and  CG  
ROOT
ATOM      1  CA  LEU A 551      28.335 -13.763   0.203  1.00 29.11     0.177 C 
ENDROOT
BRANCH   1   2
ATOM      2  CB  LEU A 551      27.422 -14.564   1.144  1.00 26.70     0.038 C 
BRANCH   2   3
ATOM      3  CG  LEU A 551      27.199 -13.884   2.510  1.00 27.88    -0.020 C 
ATOM      4  CD2 LEU A 551      27.208 -14.884   3.671  1.00 32.94     0.009 C 
ATOM      5  CD1 LEU A 551      25.855 -13.164   2.492  1.00 31.69     0.009 C 
ENDBRANCH   2   3
ENDBRANCH   1   2
END_RES LEU A 551
BEGIN_RES ILE A 559
REMARK  2 active torsions:
REMARK  status: ('A' for Active; 'I' for Inactive)
REMARK    3  A    between atoms: CA   and  CB  
REMARK    4  A    between atoms: CB   and  CG1 
ROOT
ATOM      6  CA  ILE A 559      30.859 -14.814   4.950  1.00 27.79     0.180 C 
ENDROOT
BRANCH   6   7
ATOM      7  CB  ILE A 559      29.459 -14.290   5.342  1.00 24.58     0.013 C 
ATOM      8  CG2 ILE A 559      29.054 -14.857   6.712  1.00 27.59     0.012 C 
BRANCH   7   9
ATOM      9  CG1 ILE A 559      29.350 -12.752   5.338  1.00 29.45     0.002 C 
ATOM     10  CD1 ILE A 559      29.418 -12.124   6.733  1.00 29.62     0.005 C 
ENDBRANCH   7   9
ENDBRANCH   6   7
END_RES ILE A 559
BEGIN_RES LYS A 581
REMARK  5 active torsions:
REMARK  status: ('A' for Active; 'I' for Inactive)
REMARK    5  A    between atoms: CA   and  CB  
REMARK    6  A    between atoms: CB   and  CG  
REMARK    7  A    between atoms: CG   and  CD  
REMARK    8  A    between atoms: CD   and  CE  
REMARK    9  A    between atoms: CE   and  NZ  
ROOT
ATOM     11  CA  LYS A 581      31.463 -16.896   8.967  1.00 28.57     0.176 C 
ENDROOT
BRANCH  11  12
ATOM     12  CB  LYS A 581      30.360 -16.385   9.895  1.00 28.76     0.035 C 
BRANCH  12  13
ATOM     13  CG  LYS A 581      30.185 -14.862   9.960  1.00 36.01     0.004 C 
BRANCH  13  14
ATOM     14  CD  LYS A 581      29.034 -14.601  10.938  1.00 41.65     0.027 C 
BRANCH  14  15
ATOM     15  CE  LYS A 581      29.421 -13.828  12.192  1.00 63.23     0.229 C 
BRANCH  15  16
ATOM     16  NZ  LYS A 581      28.633 -12.572  12.251  1.00 64.55    -0.079 N 
ATOM     17  HZ3 LYS A 581      29.151 -11.786  11.845  1.00 64.55     0.274 HD
ATOM     18  HZ2 LYS A 581      28.436 -12.327  13.221  1.00 64.55     0.274 HD
ATOM     19  HZ1 LYS A 581      27.771 -12.630  11.736  1.00 64.55     0.274 HD
ENDBRANCH  15  16
ENDBRANCH  14  15
ENDBRANCH  13  14
ENDBRANCH  12  13
ENDBRANCH  11  12
END_RES LYS A 581
BEGIN_RES GLU A 627
REMARK  3 active torsions:
REMARK  status: ('A' for Active; 'I' for Inactive)
REMARK   10  A    between atoms: CA   and  CB  
REMARK   11  A    between atoms: CB   and  CG  
REMARK   12  A    between atoms: CG   and  CD  
ROOT
ATOM     20  CA  GLU A 627      21.943 -22.006   8.769  1.00 28.95     0.177 C 
ENDROOT
BRANCH  20  21
ATOM     21  CB  GLU A 627      20.475 -22.000   9.268  1.00 33.37     0.045 C 
BRANCH  21  22
ATOM     22  CG  GLU A 627      19.992 -20.693   9.925  1.00 35.22     0.116 C 
BRANCH  22  23
ATOM     23  CD  GLU A 627      20.506 -19.417   9.226  1.00 35.02     0.172 C 
ATOM     24  OE1 GLU A 627      21.724 -19.159   9.114  1.00 33.81    -0.648 OA
ATOM     25  OE2 GLU A 627      19.678 -18.582   8.806  1.00 30.76    -0.648 OA
ENDBRANCH  22  23
ENDBRANCH  21  22
ENDBRANCH  20  21
END_RES GLU A 627
BEGIN_RES VAL A 629
REMARK  1 active torsions:
REMARK  status: ('A' for Active; 'I' for Inactive)
REMARK   13  A    between atoms: CA   and  CB  
ROOT
ATOM     26  CA  VAL A 629      19.333 -18.045   4.771  1.00 30.48     0.180 C 
ENDROOT
BRANCH  26  27
ATOM     27  CB  VAL A 629      19.136 -16.920   5.797  1.00 33.21     0.009 C 
ATOM     28  CG1 VAL A 629      20.073 -15.759   5.452  1.00 34.59     0.012 C 
ATOM     29  CG2 VAL A 629      17.686 -16.419   5.781  1.00 32.79     0.012 C 
ENDBRANCH  26  27
END_RES VAL A 629
ENDMDL
MODEL 3
REMARK VINA RESULT: -46686.317      2.037      3.545
REMARK INTER + INTRA:     4658907.752
REMARK INTER:                 -11.994
REMARK INTRA:             4658919.746
REMARK UNBOUND:           4719240.480
REMARK  Name = Z653910660
REMARK  6 active torsions:
REMARK  status: ('A' for Active; 'I' for Inactive)
REMARK    1  A    between atoms: C_1  and  O_5
REMARK    2  A    between atoms: O_5  and  C_6
REMARK    3  A    between atoms: N_8  and  C_10
REMARK    4  A    between atoms: C_15  and  C_16
REMARK    5  A    between atoms: C_16  and  N_19
REMARK    6  A    between atoms: C_21  and  C_23
REMARK                            x       y       z     vdW  Elec       q    Type
REMARK                         _______ _______ _______ _____ _____    ______ ____
ROOT
ATOM      1  N   UNL     1      27.447  -8.177  10.669  0.00  0.00    -0.307 N 
ATOM      2  C   UNL     1      28.069  -9.417  10.743  0.00  0.00    +0.251 C 
ATOM      3  O   UNL     1      29.170  -9.605  11.251  0.00  0.00    -0.270 OA
ATOM      4  H   UNL     1      26.567  -8.061  10.187  0.00  0.00    +0.149 HD
ENDROOT
BRANCH   2   5
ATOM      5  C   UNL     1      27.301 -10.551  10.181  0.00  0.00    +0.122 A 
ATOM      6  C   UNL     1      26.616 -11.491  11.091  0.00  0.00    +0.350 A 
ATOM      7  O   UNL     1      26.886 -11.528  12.287  0.00  0.00    -0.244 OA
ATOM      8  O   UNL     1      25.705 -12.372  10.516  0.00  0.00    -0.422 OA
ATOM      9  C   UNL     1      25.537 -12.442   9.119  0.00  0.00    +0.139 A 
ATOM     10  C   UNL     1      24.628 -13.379   8.631  0.00  0.00    +0.047 A 
ATOM     11  C   UNL     1      24.443 -13.480   7.254  0.00  0.00    +0.004 A 
ATOM     12  C   UNL     1      25.155 -12.654   6.382  0.00  0.00    +0.001 A 
ATOM     13  C   UNL     1      26.064 -11.717   6.889  0.00  0.00    +0.011 A 
ATOM     14  C   UNL     1      26.261 -11.606   8.269  0.00  0.00    +0.018 A 
ATOM     15  C   UNL     1      27.158 -10.615   8.849  0.00  0.00    +0.031 A 
ENDBRANCH   2   5
BRANCH   1  16
ATOM     16  C   UNL     1      28.117  -6.960  11.151  0.00  0.00    +0.139 C 
BRANCH  16  20
ATOM     17  C   UNL     1      27.036  -2.910   9.658  0.00  0.00    +0.036 A 
ATOM     18  C   UNL     1      28.280  -3.501   9.400  0.00  0.00    +0.024 A 
ATOM     19  C   UNL     1      28.591  -4.817   9.841  0.00  0.00    +0.007 A 
ATOM     20  C   UNL     1      27.674  -5.609  10.561  0.00  0.00    -0.030 A 
ATOM     21  C   UNL     1      26.431  -5.013  10.816  0.00  0.00    +0.007 A 
ATOM     22  C   UNL     1      26.114  -3.696  10.363  0.00  0.00    +0.024 A 
BRANCH  17  24
ATOM     23  C   UNL     1      26.377  -0.477   9.933  0.00  0.00    +0.404 C 
ATOM     24  N   UNL     1      26.812  -1.566   9.208  0.00  0.00    -0.251 N 
ATOM     25  H   UNL     1      26.999  -1.360   8.236  0.00  0.00    +0.158 HD
ATOM     26  O   UNL     1      26.079  -0.493  11.120  0.00  0.00    -0.226 OA
BRANCH  23  28
ATOM     27  C   UNL     1      27.370   1.584   9.342  0.00  0.00    +0.282 C 
ATOM     28  O   UNL     1      26.324   0.627   9.126  0.00  0.00    -0.453 OA
ENDBRANCH  23  28
ENDBRANCH  17  24
ENDBRANCH  16  20
ENDBRANCH   1  16
TORSDOF 5
BEGIN_RES LEU A 551
REMARK  2 active torsions:
REMARK  status: ('A' for Active; 'I' for Inactive)
REMARK    1  A    between atoms: CA   and  CB  
REMARK    2  A    between atoms: CB   and  CG  
ROOT
ATOM      1  CA  LEU A 551      28.335 -13.763   0.203  1.00 29.11     0.177 C 
ENDROOT
BRANCH   1   2
ATOM      2  CB  LEU A 551      27.422 -14.564   1.144  1.00 26.70     0.038 C 
BRANCH   2   3
ATOM      3  CG  LEU A 551      27.267 -13.928   2.540  1.00 27.88    -0.020 C 
ATOM      4  CD2 LEU A 551      27.122 -14.975   3.649  1.00 32.94     0.009 C 
ATOM      5  CD1 LEU A 551      26.033 -13.033   2.543  1.00 31.69     0.009 C 
ENDBRANCH   2   3
ENDBRANCH   1   2
END_RES LEU A 551
BEGIN_RES ILE A 559
REMARK  2 active torsions:
REMARK  status: ('A' for Active; 'I' for Inactive)
REMARK    3  A    between atoms: CA   and  CB  
REMARK    4  A    between atoms: CB   and  CG1 
ROOT
ATOM      6  CA  ILE A 559      30.859 -14.814   4.950  1.00 27.79     0.180 C 
ENDROOT
BRANCH   6   7
ATOM      7  CB  ILE A 559      29.459 -14.290   5.342  1.00 24.58     0.013 C 
ATOM      8  CG2 ILE A 559      29.047 -14.870   6.704  1.00 27.59     0.012 C 
BRANCH   7   9
ATOM      9  CG1 ILE A 559      29.354 -12.751   5.353  1.00 29.45     0.002 C 
ATOM     10  CD1 ILE A 559      29.665 -12.121   6.714  1.00 29.62     0.005 C 
ENDBRANCH   7   9
ENDBRANCH   6   7
END_RES ILE A 559
BEGIN_RES LYS A 581
REMARK  5 active torsions:
REMARK  status: ('A' for Active; 'I' for Inactive)
REMARK    5  A    between atoms: CA   and  CB  
REMARK    6  A    between atoms: CB   and  CG  
REMARK    7  A    between atoms: CG   and  CD  
REMARK    8  A    between atoms: CD   and  CE  
REMARK    9  A    between atoms: CE   and  NZ  
ROOT
ATOM     11  CA  LYS A 581      31.463 -16.896   8.967  1.00 28.57     0.176 C 
ENDROOT
BRANCH  11  12
ATOM     12  CB  LYS A 581      30.360 -16.385   9.895  1.00 28.76     0.035 C 
BRANCH  12  13
ATOM     13  CG  LYS A 581      30.058 -14.883   9.819  1.00 36.01     0.004 C 
BRANCH  13  14
ATOM     14  CD  LYS A 581      29.797 -14.422  11.258  1.00 41.65     0.027 C 
BRANCH  14  15
ATOM     15  CE  LYS A 581      30.115 -12.956  11.529  1.00 63.23     0.229 C 
BRANCH  15  16
ATOM     16  NZ  LYS A 581      29.541 -12.570  12.842  1.00 64.55    -0.079 N 
ATOM     17  HZ3 LYS A 581      30.276 -12.371  13.528  1.00 64.55     0.274 HD
ATOM     18  HZ2 LYS A 581      28.983 -13.335  13.219  1.00 64.55     0.274 HD
ATOM     19  HZ1 LYS A 581      28.980 -11.737  12.790  1.00 64.55     0.274 HD
ENDBRANCH  15  16
ENDBRANCH  14  15
ENDBRANCH  13  14
ENDBRANCH  12  13
ENDBRANCH  11  12
END_RES LYS A 581
BEGIN_RES GLU A 627
REMARK  3 active torsions:
REMARK  status: ('A' for Active; 'I' for Inactive)
REMARK   10  A    between atoms: CA   and  CB  
REMARK   11  A    between atoms: CB   and  CG  
REMARK   12  A    between atoms: CG   and  CD  
ROOT
ATOM     20  CA  GLU A 627      21.943 -22.006   8.769  1.00 28.95     0.177 C 
ENDROOT
BRANCH  20  21
ATOM     21  CB  GLU A 627      20.475 -22.000   9.268  1.00 33.37     0.045 C 
BRANCH  21  22
ATOM     22  CG  GLU A 627      19.992 -20.693   9.925  1.00 35.22     0.116 C 
BRANCH  22  23
ATOM     23  CD  GLU A 627      20.506 -19.417   9.226  1.00 35.02     0.172 C 
ATOM     24  OE1 GLU A 627      21.724 -19.159   9.114  1.00 33.81    -0.648 OA
ATOM     25  OE2 GLU A 627      19.678 -18.582   8.806  1.00 30.76    -0.648 OA
ENDBRANCH  22  23
ENDBRANCH  21  22
ENDBRANCH  20  21
END_RES GLU A 627
BEGIN_RES VAL A 629
REMARK  1 active torsions:
REMARK  status: ('A' for Active; 'I' for Inactive)
REMARK   13  A    between atoms: CA   and  CB  
ROOT
ATOM     26  CA  VAL A 629      19.333 -18.045   4.771  1.00 30.48     0.180 C 
ENDROOT
BRANCH  26  27
ATOM     27  CB  VAL A 629      19.136 -16.920   5.797  1.00 33.21     0.009 C 
ATOM     28  CG1 VAL A 629      20.216 -15.855   5.585  1.00 34.59     0.012 C 
ATOM     29  CG2 VAL A 629      17.753 -16.275   5.636  1.00 32.79     0.012 C 
ENDBRANCH  26  27
END_RES VAL A 629
ENDMDL
MODEL 4
REMARK VINA RESULT: -46685.149      1.933      7.217
REMARK INTER + INTRA:     4658909.262
REMARK INTER:                 -10.599
REMARK INTRA:             4658919.861
REMARK UNBOUND:           4719240.480
REMARK  Name = Z653910660
REMARK  6 active torsions:
REMARK  status: ('A' for Active; 'I' for Inactive)
REMARK    1  A    between atoms: C_1  and  O_5
REMARK    2  A    between atoms: O_5  and  C_6
REMARK    3  A    between atoms: N_8  and  C_10
REMARK    4  A    between atoms: C_15  and  C_16
REMARK    5  A    between atoms: C_16  and  N_19
REMARK    6  A    between atoms: C_21  and  C_23
REMARK                            x       y       z     vdW  Elec       q    Type
REMARK                         _______ _______ _______ _____ _____    ______ ____
ROOT
ATOM      1  N   UNL     1      26.002 -12.182  10.573  0.00  0.00    -0.307 N 
ATOM      2  C   UNL     1      27.227 -11.556  10.376  0.00  0.00    +0.251 C 
ATOM      3  O   UNL     1      28.194 -12.092   9.844  0.00  0.00    -0.270 OA
ATOM      4  H   UNL     1      25.253 -11.720  11.071  0.00  0.00    +0.149 HD
ENDROOT
BRANCH   2   5
ATOM      5  C   UNL     1      27.307 -10.150  10.831  0.00  0.00    +0.122 A 
ATOM      6  C   UNL     1      27.397  -9.852  12.274  0.00  0.00    +0.350 A 
ATOM      7  O   UNL     1      27.130 -10.705  13.115  0.00  0.00    -0.244 OA
ATOM      8  O   UNL     1      27.730  -8.549  12.629  0.00  0.00    -0.422 OA
ATOM      9  C   UNL     1      27.856  -7.536  11.658  0.00  0.00    +0.139 A 
ATOM     10  C   UNL     1      28.157  -6.253  12.108  0.00  0.00    +0.047 A 
ATOM     11  C   UNL     1      28.282  -5.226  11.176  0.00  0.00    +0.004 A 
ATOM     12  C   UNL     1      28.110  -5.482   9.814  0.00  0.00    +0.001 A 
ATOM     13  C   UNL     1      27.808  -6.778   9.377  0.00  0.00    +0.011 A 
ATOM     14  C   UNL     1      27.678  -7.818  10.303  0.00  0.00    +0.018 A 
ATOM     15  C   UNL     1      27.414  -9.192   9.897  0.00  0.00    +0.031 A 
ENDBRANCH   2   5
BRANCH   1  16
ATOM     16  C   UNL     1      25.799 -13.591  10.207  0.00  0.00    +0.139 C 
BRANCH  16  20
ATOM     17  C   UNL     1      24.443 -14.232   6.018  0.00  0.00    +0.036 A 
ATOM     18  C   UNL     1      25.414 -13.281   6.358  0.00  0.00    +0.024 A 
ATOM     19  C   UNL     1      25.873 -13.124   7.695  0.00  0.00    +0.007 A 
ATOM     20  C   UNL     1      25.387 -13.910   8.758  0.00  0.00    -0.030 A 
ATOM     21  C   UNL     1      24.415 -14.861   8.412  0.00  0.00    +0.007 A 
ATOM     22  C   UNL     1      23.963 -15.027   7.068  0.00  0.00    +0.024 A 
BRANCH  17  24
ATOM     23  C   UNL     1      23.469 -13.310   3.866  0.00  0.00    +0.404 C 
ATOM     24  N   UNL     1      24.008 -14.305   4.653  0.00  0.00    -0.251 N 
ATOM     25  H   UNL     1      24.107 -15.192   4.176  0.00  0.00    +0.158 HD
ATOM     26  O   UNL     1      23.246 -12.164   4.234  0.00  0.00    -0.226 OA
BRANCH  23  28
ATOM     27  C   UNL     1      23.120 -15.223   2.525  0.00  0.00    +0.282 C 
ATOM     28  O   UNL     1      23.215 -13.794   2.612  0.00  0.00    -0.453 OA
ENDBRANCH  23  28
ENDBRANCH  17  24
ENDBRANCH  16  20
ENDBRANCH   1  16
TORSDOF 5
BEGIN_RES LEU A 551
REMARK  2 active torsions:
REMARK  status: ('A' for Active; 'I' for Inactive)
REMARK    1  A    between atoms: CA   and  CB  
REMARK    2  A    between atoms: CB   and  CG  
ROOT
ATOM      1  CA  LEU A 551      28.335 -13.763   0.203  1.00 29.11     0.177 C 
ENDROOT
BRANCH   1   2
ATOM      2  CB  LEU A 551      27.422 -14.564   1.144  1.00 26.70     0.038 C 
BRANCH   2   3
ATOM      3  CG  LEU A 551      27.549 -14.150   2.624  1.00 27.88    -0.020 C 
ATOM      4  CD2 LEU A 551      27.175 -15.284   3.584  1.00 32.94     0.009 C 
ATOM      5  CD1 LEU A 551      26.633 -12.960   2.887  1.00 31.69     0.009 C 
ENDBRANCH   2   3
ENDBRANCH   1   2
END_RES LEU A 551
BEGIN_RES ILE A 559
REMARK  2 active torsions:
REMARK  status: ('A' for Active; 'I' for Inactive)
REMARK    3  A    between atoms: CA   and  CB  
REMARK    4  A    between atoms: CB   and  CG1 
ROOT
ATOM      6  CA  ILE A 559      30.859 -14.814   4.950  1.00 27.79     0.180 C 
ENDROOT
BRANCH   6   7
ATOM      7  CB  ILE A 559      29.459 -14.290   5.342  1.00 24.58     0.013 C 
ATOM      8  CG2 ILE A 559      29.117 -14.735   6.773  1.00 27.59     0.012 C 
BRANCH   7   9
ATOM      9  CG1 ILE A 559      29.307 -12.762   5.198  1.00 29.45     0.002 C 
ATOM     10  CD1 ILE A 559      29.252 -12.018   6.535  1.00 29.62     0.005 C 
ENDBRANCH   7   9
ENDBRANCH   6   7
END_RES ILE A 559
BEGIN_RES LYS A 581
REMARK  5 active torsions:
REMARK  status: ('A' for Active; 'I' for Inactive)
REMARK    5  A    between atoms: CA   and  CB  
REMARK    6  A    between atoms: CB   and  CG  
REMARK    7  A    between atoms: CG   and  CD  
REMARK    8  A    between atoms: CD   and  CE  
REMARK    9  A    between atoms: CE   and  NZ  
ROOT
ATOM     11  CA  LYS A 581      31.463 -16.896   8.967  1.00 28.57     0.176 C 
ENDROOT
BRANCH  11  12
ATOM     12  CB  LYS A 581      30.360 -16.385   9.895  1.00 28.76     0.035 C 
BRANCH  12  13
ATOM     13  CG  LYS A 581      30.281 -14.863  10.074  1.00 36.01     0.004 C 
BRANCH  13  14
ATOM     14  CD  LYS A 581      30.054 -14.616  11.571  1.00 41.65     0.027 C 
BRANCH  14  15
ATOM     15  CE  LYS A 581      30.214 -13.167  12.013  1.00 63.23     0.229 C 
BRANCH  15  16
ATOM     16  NZ  LYS A 581      29.106 -12.816  12.935  1.00 64.55    -0.079 N 
ATOM     17  HZ3 LYS A 581      29.425 -12.191  13.683  1.00 64.55     0.274 HD
ATOM     18  HZ2 LYS A 581      28.745 -13.656  13.385  1.00 64.55     0.274 HD
ATOM     19  HZ1 LYS A 581      28.355 -12.331  12.473  1.00 64.55     0.274 HD
ENDBRANCH  15  16
ENDBRANCH  14  15
ENDBRANCH  13  14
ENDBRANCH  12  13
ENDBRANCH  11  12
END_RES LYS A 581
BEGIN_RES GLU A 627
REMARK  3 active torsions:
REMARK  status: ('A' for Active; 'I' for Inactive)
REMARK   10  A    between atoms: CA   and  CB  
REMARK   11  A    between atoms: CB   and  CG  
REMARK   12  A    between atoms: CG   and  CD  
ROOT
ATOM     20  CA  GLU A 627      21.943 -22.006   8.769  1.00 28.95     0.177 C 
ENDROOT
BRANCH  20  21
ATOM     21  CB  GLU A 627      20.475 -22.000   9.268  1.00 33.37     0.045 C 
BRANCH  21  22
ATOM     22  CG  GLU A 627      19.992 -20.693   9.925  1.00 35.22     0.116 C 
BRANCH  22  23
ATOM     23  CD  GLU A 627      20.506 -19.417   9.226  1.00 35.02     0.172 C 
ATOM     24  OE1 GLU A 627      21.724 -19.159   9.114  1.00 33.81    -0.648 OA
ATOM     25  OE2 GLU A 627      19.678 -18.582   8.806  1.00 30.76    -0.648 OA
ENDBRANCH  22  23
ENDBRANCH  21  22
ENDBRANCH  20  21
END_RES GLU A 627
BEGIN_RES VAL A 629
REMARK  1 active torsions:
REMARK  status: ('A' for Active; 'I' for Inactive)
REMARK   13  A    between atoms: CA   and  CB  
ROOT
ATOM     26  CA  VAL A 629      19.333 -18.045   4.771  1.00 30.48     0.180 C 
ENDROOT
BRANCH  26  27
ATOM     27  CB  VAL A 629      19.136 -16.920   5.797  1.00 33.21     0.009 C 
ATOM     28  CG1 VAL A 629      20.205 -15.846   5.573  1.00 34.59     0.012 C 
ATOM     29  CG2 VAL A 629      17.746 -16.286   5.647  1.00 32.79     0.012 C 
ENDBRANCH  26  27
END_RES VAL A 629
ENDMDL
MODEL 5
REMARK VINA RESULT: -46685.114      2.778      5.049
REMARK INTER + INTRA:     4658909.307
REMARK INTER:                 -10.531
REMARK INTRA:             4658919.838
REMARK UNBOUND:           4719240.480
REMARK  Name = Z653910660
REMARK  6 active torsions:
REMARK  status: ('A' for Active; 'I' for Inactive)
REMARK    1  A    between atoms: C_1  and  O_5
REMARK    2  A    between atoms: O_5  and  C_6
REMARK    3  A    between atoms: N_8  and  C_10
REMARK    4  A    between atoms: C_15  and  C_16
REMARK    5  A    between atoms: C_16  and  N_19
REMARK    6  A    between atoms: C_21  and  C_23
REMARK                            x       y       z     vdW  Elec       q    Type
REMARK                         _______ _______ _______ _____ _____    ______ ____
ROOT
ATOM      1  N   UNL     1      26.773  -5.957  10.830  0.00  0.00    -0.307 N 
ATOM      2  C   UNL     1      27.920  -6.731  10.702  0.00  0.00    +0.251 C 
ATOM      3  O   UNL     1      29.047  -6.343  10.992  0.00  0.00    -0.270 OA
ATOM      4  H   UNL     1      25.874  -6.300  10.521  0.00  0.00    +0.149 HD
ENDROOT
BRANCH   2   5
ATOM      5  C   UNL     1      27.709  -8.109  10.203  0.00  0.00    +0.122 A 
ATOM      6  C   UNL     1      28.006  -9.258  11.082  0.00  0.00    +0.350 A 
ATOM      7  O   UNL     1      28.678  -9.121  12.100  0.00  0.00    -0.244 OA
ATOM      8  O   UNL     1      27.549 -10.504  10.666  0.00  0.00    -0.422 OA
ATOM      9  C   UNL     1      26.937 -10.676   9.409  0.00  0.00    +0.139 A 
ATOM     10  C   UNL     1      26.542 -11.966   9.061  0.00  0.00    +0.047 A 
ATOM     11  C   UNL     1      25.940 -12.173   7.823  0.00  0.00    +0.004 A 
ATOM     12  C   UNL     1      25.736 -11.104   6.948  0.00  0.00    +0.001 A 
ATOM     13  C   UNL     1      26.138  -9.813   7.312  0.00  0.00    +0.011 A 
ATOM     14  C   UNL     1      26.745  -9.591   8.552  0.00  0.00    +0.018 A 
ATOM     15  C   UNL     1      27.136  -8.261   8.999  0.00  0.00    +0.031 A 
ENDBRANCH   2   5
BRANCH   1  16
ATOM     16  C   UNL     1      26.845  -4.557  11.273  0.00  0.00    +0.139 C 
BRANCH  16  20
ATOM     17  C   UNL     1      26.758  -1.581   7.967  0.00  0.00    +0.036 A 
ATOM     18  C   UNL     1      25.624  -1.898   8.726  0.00  0.00    +0.024 A 
ATOM     19  C   UNL     1      25.680  -2.814   9.812  0.00  0.00    +0.007 A 
ATOM     20  C   UNL     1      26.873  -3.458  10.196  0.00  0.00    -0.030 A 
ATOM     21  C   UNL     1      28.005  -3.136   9.434  0.00  0.00    +0.007 A 
ATOM     22  C   UNL     1      27.951  -2.208   8.351  0.00  0.00    +0.024 A 
BRANCH  17  24
ATOM     23  C   UNL     1      26.386  -0.961   5.537  0.00  0.00    +0.404 C 
ATOM     24  N   UNL     1      26.611  -0.673   6.866  0.00  0.00    -0.251 N 
ATOM     25  H   UNL     1      26.668   0.318   7.065  0.00  0.00    +0.158 HD
ATOM     26  O   UNL     1      26.295  -2.086   5.065  0.00  0.00    -0.226 OA
BRANCH  23  28
ATOM     27  C   UNL     1      26.961   1.326   5.397  0.00  0.00    +0.282 C 
ATOM     28  O   UNL     1      26.283   0.201   4.821  0.00  0.00    -0.453 OA
ENDBRANCH  23  28
ENDBRANCH  17  24
ENDBRANCH  16  20
ENDBRANCH   1  16
TORSDOF 5
BEGIN_RES LEU A 551
REMARK  2 active torsions:
REMARK  status: ('A' for Active; 'I' for Inactive)
REMARK    1  A    between atoms: CA   and  CB  
REMARK    2  A    between atoms: CB   and  CG  
ROOT
ATOM      1  CA  LEU A 551      28.335 -13.763   0.203  1.00 29.11     0.177 C 
ENDROOT
BRANCH   1   2
ATOM      2  CB  LEU A 551      27.422 -14.564   1.144  1.00 26.70     0.038 C 
BRANCH   2   3
ATOM      3  CG  LEU A 551      27.236 -13.907   2.527  1.00 27.88    -0.020 C 
ATOM      4  CD2 LEU A 551      27.258 -14.929   3.669  1.00 32.94     0.009 C 
ATOM      5  CD1 LEU A 551      25.901 -13.171   2.550  1.00 31.69     0.009 C 
ENDBRANCH   2   3
ENDBRANCH   1   2
END_RES LEU A 551
BEGIN_RES ILE A 559
REMARK  2 active torsions:
REMARK  status: ('A' for Active; 'I' for Inactive)
REMARK    3  A    between atoms: CA   and  CB  
REMARK    4  A    between atoms: CB   and  CG1 
ROOT
ATOM      6  CA  ILE A 559      30.859 -14.814   4.950  1.00 27.79     0.180 C 
ENDROOT
BRANCH   6   7
ATOM      7  CB  ILE A 559      29.459 -14.290   5.342  1.00 24.58     0.013 C 
ATOM      8  CG2 ILE A 559      29.102 -14.766   6.759  1.00 27.59     0.012 C 
BRANCH   7   9
ATOM      9  CG1 ILE A 559      29.317 -12.758   5.231  1.00 29.45     0.002 C 
ATOM     10  CD1 ILE A 559      29.392 -12.033   6.578  1.00 29.62     0.005 C 
ENDBRANCH   7   9
ENDBRANCH   6   7
END_RES ILE A 559
BEGIN_RES LYS A 581
REMARK  5 active torsions:
REMARK  status: ('A' for Active; 'I' for Inactive)
REMARK    5  A    between atoms: CA   and  CB  
REMARK    6  A    between atoms: CB   and  CG  
REMARK    7  A    between atoms: CG   and  CD  
REMARK    8  A    between atoms: CD   and  CE  
REMARK    9  A    between atoms: CE   and  NZ  
ROOT
ATOM     11  CA  LYS A 581      31.463 -16.896   8.967  1.00 28.57     0.176 C 
ENDROOT
BRANCH  11  12
ATOM     12  CB  LYS A 581      30.360 -16.385   9.895  1.00 28.76     0.035 C 
BRANCH  12  13
ATOM     13  CG  LYS A 581      30.341 -14.872  10.150  1.00 36.01     0.004 C 
BRANCH  13  14
ATOM     14  CD  LYS A 581      29.822 -14.682  11.581  1.00 41.65     0.027 C 
BRANCH  14  15
ATOM     15  CE  LYS A 581      29.078 -13.375  11.824  1.00 63.23     0.229 C 
BRANCH  15  16
ATOM     16  NZ  LYS A 581      29.969 -12.238  11.487  1.00 64.55    -0.079 N 
ATOM     17  HZ3 LYS A 581      29.966 -12.046  10.480  1.00 64.55     0.274 HD
ATOM     18  HZ2 LYS A 581      30.931 -12.459  11.743  1.00 64.55     0.274 HD
ATOM     19  HZ1 LYS A 581      29.689 -11.380  11.931  1.00 64.55     0.274 HD
ENDBRANCH  15  16
ENDBRANCH  14  15
ENDBRANCH  13  14
ENDBRANCH  12  13
ENDBRANCH  11  12
END_RES LYS A 581
BEGIN_RES GLU A 627
REMARK  3 active torsions:
REMARK  status: ('A' for Active; 'I' for Inactive)
REMARK   10  A    between atoms: CA   and  CB  
REMARK   11  A    between atoms: CB   and  CG  
REMARK   12  A    between atoms: CG   and  CD  
ROOT
ATOM     20  CA  GLU A 627      21.943 -22.006   8.769  1.00 28.95     0.177 C 
ENDROOT
BRANCH  20  21
ATOM     21  CB  GLU A 627      20.475 -22.000   9.268  1.00 33.37     0.045 C 
BRANCH  21  22
ATOM     22  CG  GLU A 627      19.992 -20.693   9.925  1.00 35.22     0.116 C 
BRANCH  22  23
ATOM     23  CD  GLU A 627      20.506 -19.417   9.226  1.00 35.02     0.172 C 
ATOM     24  OE1 GLU A 627      21.724 -19.159   9.114  1.00 33.81    -0.648 OA
ATOM     25  OE2 GLU A 627      19.678 -18.582   8.806  1.00 30.76    -0.648 OA
ENDBRANCH  22  23
ENDBRANCH  21  22
ENDBRANCH  20  21
END_RES GLU A 627
BEGIN_RES VAL A 629
REMARK  1 active torsions:
REMARK  status: ('A' for Active; 'I' for Inactive)
REMARK   13  A    between atoms: CA   and  CB  
ROOT
ATOM     26  CA  VAL A 629      19.333 -18.045   4.771  1.00 30.48     0.180 C 
ENDROOT
BRANCH  26  27
ATOM     27  CB  VAL A 629      19.136 -16.920   5.797  1.00 33.21     0.009 C 
ATOM     28  CG1 VAL A 629      20.502 -16.498   6.345  1.00 34.59     0.012 C 
ATOM     29  CG2 VAL A 629      18.457 -15.707   5.148  1.00 32.79     0.012 C 
ENDBRANCH  26  27
END_RES VAL A 629
ENDMDL
